Circuit: * G:\mine\ee18btech11049.asc

Direct Newton iteration for .op point succeeded.

Date: Sat May 30 10:30:59 2020
Total elapsed time: 0.170 seconds.

tnom = 27
temp = 27
method = modified trap
totiter = 3726
traniter = 3716
tranpoints = 1635
accept = 1418
rejected = 217
matrix size = 38
fillins = 48
solver = Normal
Matrix Compiler1:     239 opcodes  0.8/[0.5]/1.0
Matrix Compiler2: 3.90 KB object code size  0.3/0.5/[0.3]

